
OS:Version,
  {f40a7301-92b7-4069-a84a-fd9f769c9bfe}, !- Handle
  3.7.0;                                  !- Version Identifier

OS:Site,
  {5db26a41-0ae7-4912-8cab-76a501618abf}, !- Handle
  Calgary Intl AP_AB_CAN,                 !- Name
  51.11,                                  !- Latitude {deg}
  -114.02,                                !- Longitude {deg}
  -7,                                     !- Time Zone {hr}
  1084.1,                                 !- Elevation {m}
  ;                                       !- Terrain

OS:YearDescription,
  {2ff64a40-b518-4b15-a6c6-06d01fb004ff}, !- Handle
  ,                                       !- Calendar Year
  Sunday;                                 !- Day of Week for Start Day

OS:ClimateZones,
  {ba8cd255-4e69-478a-827b-a458bfd8e681}, !- Handle
  ASHRAE,                                 !- Climate Zone Institution Name 1
  ANSI/ASHRAE Standard 169,               !- Climate Zone Document Name 1
  2006,                                   !- Climate Zone Document Year 1
  7;                                      !- Climate Zone Value 1

OS:Building,
  {db8d7a5c-72a8-4085-9c1d-97c9253467ea}, !- Handle
  edgeCaseGeom_noOverhang,                !- Name
  ,                                       !- Building Sector Type
  ,                                       !- North Axis {deg}
  ,                                       !- Nominal Floor to Floor Height {m}
  ,                                       !- Space Type Name
  {d9d9e259-48f3-4f88-b2fb-173c532a1c9b}, !- Default Construction Set Name
  ,                                       !- Default Schedule Set Name
  7,                                      !- Standards Number of Stories
  6,                                      !- Standards Number of Above Ground Stories
  NECB2011,                               !- Standards Template
  Office,                                 !- Standards Building Type
  ,                                       !- Standards Number of Living Units
  ,                                       !- Relocatable
  ;                                       !- Nominal Floor to Ceiling Height {m}

OS:Facility,
  {23d3fce7-775e-4512-ba1f-fa1be645994b}; !- Handle

OS:SimulationControl,
  {85c13c79-01ab-471e-9634-a05699d6adb1}, !- Handle
  ,                                       !- Do Zone Sizing Calculation
  ,                                       !- Do System Sizing Calculation
  ,                                       !- Do Plant Sizing Calculation
  No,                                     !- Run Simulation for Sizing Periods
  Yes,                                    !- Run Simulation for Weather File Run Periods
  ,                                       !- Loads Convergence Tolerance Value {W}
  ,                                       !- Temperature Convergence Tolerance Value {deltaC}
  ,                                       !- Solar Distribution
  ,                                       !- Maximum Number of Warmup Days
  ,                                       !- Minimum Number of Warmup Days
  No,                                     !- Do HVAC Sizing Simulation for Sizing Periods
  1;                                      !- Maximum Number of HVAC Sizing Simulation Passes

OS:Sizing:Parameters,
  {3654685c-8423-4861-870c-9194a5ca0d21}, !- Handle
  1.3,                                    !- Heating Sizing Factor
  1.1;                                    !- Cooling Sizing Factor

OS:Timestep,
  {4802efd6-3d34-42dc-ad6e-e1ae8ceb643f}, !- Handle
  6;                                      !- Number of Timesteps per Hour

OS:ShadowCalculation,
  {a5662564-a270-4d86-8b33-a3f969b3f9d5}, !- Handle
  PolygonClipping,                        !- Shading Calculation Method
  ,                                       !- Shading Calculation Update Frequency Method
  20,                                     !- Shading Calculation Update Frequency
  15000,                                  !- Maximum Figures in Shadow Overlap Calculations
  ,                                       !- Polygon Clipping Algorithm
  512,                                    !- Pixel Counting Resolution
  ,                                       !- Sky Diffuse Modeling Algorithm
  No,                                     !- Output External Shading Calculation Results
  No,                                     !- Disable Self-Shading Within Shading Zone Groups
  No;                                     !- Disable Self-Shading From Shading Zone Groups to Other Zones

OS:HeatBalanceAlgorithm,
  {d85d0894-df5e-4792-a37b-4581413ba765}, !- Handle
  ConductionTransferFunction,             !- Algorithm
  200;                                    !- Surface Temperature Upper Limit {C}

OS:RunPeriod,
  {212fc009-2f24-4344-a776-a1e55374324b}, !- Handle
  Run Period 1,                           !- Name
  1,                                      !- Begin Month
  1,                                      !- Begin Day of Month
  12,                                     !- End Month
  31,                                     !- End Day of Month
  ,                                       !- Use Weather File Holidays and Special Days
  ,                                       !- Use Weather File Daylight Saving Period
  ,                                       !- Apply Weekend Holiday Rule
  ,                                       !- Use Weather File Rain Indicators
  ,                                       !- Use Weather File Snow Indicators
  ;                                       !- Number of Times Runperiod to be Repeated

OS:LifeCycleCost:Parameters,
  {25f76cba-fa80-420a-b0c4-b09cc858f5aa}, !- Handle
  ,                                       !- Analysis Type
  ,                                       !- Discounting Convention
  ,                                       !- Inflation Approach
  ,                                       !- Real Discount Rate
  ,                                       !- Nominal Discount Rate
  ,                                       !- Inflation
  ,                                       !- Base Date Month
  ,                                       !- Base Date Year
  ,                                       !- Service Date Month
  ,                                       !- Service Date Year
  ;                                       !- Length of Study Period in Years

OS:Rendering:Color,
  {c25cd473-a39d-4a06-ab6c-e53e3d48454e}, !- Handle
  Rendering Color 111,                    !- Name
  250,                                    !- Rendering Red Value
  210,                                    !- Rendering Green Value
  250;                                    !- Rendering Blue Value

OS:Rendering:Color,
  {939ef222-999d-46c8-b567-75777ff3caa8}, !- Handle
  Rendering Color 121,                    !- Name
  165,                                    !- Rendering Red Value
  42,                                     !- Rendering Green Value
  42;                                     !- Rendering Blue Value

OS:Rendering:Color,
  {1933cb38-4214-4965-a1eb-a9b2e2698b43}, !- Handle
  Rendering Color 120,                    !- Name
  219,                                    !- Rendering Red Value
  147,                                    !- Rendering Green Value
  112;                                    !- Rendering Blue Value

OS:Rendering:Color,
  {b92010cc-b364-4723-9465-861cb2402e0d}, !- Handle
  Rendering Color 119,                    !- Name
  32,                                     !- Rendering Red Value
  170,                                    !- Rendering Green Value
  178;                                    !- Rendering Blue Value

OS:Rendering:Color,
  {657f6b2b-1099-4873-b1e0-5bc06a18c7c7}, !- Handle
  Rendering Color 118,                    !- Name
  0,                                      !- Rendering Red Value
  139,                                    !- Rendering Green Value
  0;                                      !- Rendering Blue Value

OS:Rendering:Color,
  {cedee51a-0a4d-4784-af27-aa3a0d783958}, !- Handle
  Rendering Color 117,                    !- Name
  255,                                    !- Rendering Red Value
  225,                                    !- Rendering Green Value
  228;                                    !- Rendering Blue Value

OS:Rendering:Color,
  {ee7feb02-f80f-410f-8ac9-969f8d1f1d4d}, !- Handle
  Rendering Color 116,                    !- Name
  245,                                    !- Rendering Red Value
  245,                                    !- Rendering Green Value
  245;                                    !- Rendering Blue Value

OS:Rendering:Color,
  {33bc6e4c-b110-4405-b0f1-23028b09c9b2}, !- Handle
  Rendering Color 115,                    !- Name
  192,                                    !- Rendering Red Value
  192,                                    !- Rendering Green Value
  192;                                    !- Rendering Blue Value

OS:Rendering:Color,
  {571d524b-1f9f-438f-8e73-81816d1a55e4}, !- Handle
  Rendering Color 114,                    !- Name
  221,                                    !- Rendering Red Value
  221,                                    !- Rendering Green Value
  160;                                    !- Rendering Blue Value

OS:Rendering:Color,
  {9ed8b423-1927-4e28-9c5f-542c3f0fae94}, !- Handle
  Rendering Color 113,                    !- Name
  255,                                    !- Rendering Red Value
  240,                                    !- Rendering Green Value
  255;                                    !- Rendering Blue Value

OS:Rendering:Color,
  {f45ab569-5eb7-485d-a582-7f53aaaec4b8}, !- Handle
  Rendering Color 112,                    !- Name
  0,                                      !- Rendering Red Value
  209,                                    !- Rendering Green Value
  206;                                    !- Rendering Blue Value

OS:BuildingStory,
  {845fbfed-7d49-471f-baea-096482805ddd}, !- Handle
  Building Story 1,                       !- Name
  0,                                      !- Nominal Z Coordinate {m}
  3.048,                                  !- Nominal Floor to Floor Height {m}
  ,                                       !- Default Construction Set Name
  ,                                       !- Default Schedule Set Name
  {739b8e04-a439-4363-ae47-ed1a386e2df0}; !- Group Rendering Name

OS:Space,
  {82cd5d60-3e23-4d96-aa60-e1dbf1c60b6f}, !- Handle
  Basement,                               !- Name
  {685e08f3-36c1-46c7-a116-6fbec12807cb}, !- Space Type Name
  ,                                       !- Default Construction Set Name
  ,                                       !- Default Schedule Set Name
  -0,                                     !- Direction of Relative North {deg}
  20,                                     !- X Origin {m}
  0,                                      !- Y Origin {m}
  0,                                      !- Z Origin {m}
  {027e10a8-03f5-49f0-bdc9-80fc13fd20d1}, !- Building Story Name
  {55868517-c884-4d56-8f04-0c3e25f2b0c5}, !- Thermal Zone Name
  ,                                       !- Part of Total Floor Area
  ,                                       !- Design Specification Outdoor Air Object Name
  ,                                       !- Building Unit Name
  Autocalculate,                          !- Volume {m3}
  ,                                       !- Ceiling Height {m}
  ;                                       !- Floor Area {m2}

OS:Surface,
  {e0dada4d-46b0-4d4d-9589-c0df176602aa}, !- Handle
  Surface 1,                              !- Name
  Floor,                                  !- Surface Type
  {43a53d57-2d31-44e4-b844-d16e0abe3d25}, !- Construction Name
  {82cd5d60-3e23-4d96-aa60-e1dbf1c60b6f}, !- Space Name
  Foundation,                             !- Outside Boundary Condition
  {0ef43b23-6d92-49af-83ba-d72e5e0c1840}, !- Outside Boundary Condition Object
  NoSun,                                  !- Sun Exposure
  NoWind,                                 !- Wind Exposure
  ,                                       !- View Factor to Ground
  ,                                       !- Number of Vertices
  0, 15, -3.048,                          !- X,Y,Z Vertex 1 {m}
  0, 0, -3.048,                           !- X,Y,Z Vertex 2 {m}
  -20, 0, -3.048,                         !- X,Y,Z Vertex 3 {m}
  -20, 15, -3.048;                        !- X,Y,Z Vertex 4 {m}

OS:Surface,
  {dc13d673-dc75-49d5-a9eb-743fe6a75d24}, !- Handle
  Surface 2,                              !- Name
  Wall,                                   !- Surface Type
  {db6f29c9-bd4d-46b6-ad2e-99a92e31d4f9}, !- Construction Name
  {82cd5d60-3e23-4d96-aa60-e1dbf1c60b6f}, !- Space Name
  Foundation,                             !- Outside Boundary Condition
  {0ef43b23-6d92-49af-83ba-d72e5e0c1840}, !- Outside Boundary Condition Object
  NoSun,                                  !- Sun Exposure
  NoWind,                                 !- Wind Exposure
  ,                                       !- View Factor to Ground
  ,                                       !- Number of Vertices
  -20, 0, 0,                              !- X,Y,Z Vertex 1 {m}
  -20, 0, -3.048,                         !- X,Y,Z Vertex 2 {m}
  0, 0, -3.048,                           !- X,Y,Z Vertex 3 {m}
  0, 0, 0;                                !- X,Y,Z Vertex 4 {m}

OS:Surface,
  {f20e8cc5-49ef-4041-bf27-ff83fffcc85a}, !- Handle
  Surface 3,                              !- Name
  Wall,                                   !- Surface Type
  {db6f29c9-bd4d-46b6-ad2e-99a92e31d4f9}, !- Construction Name
  {82cd5d60-3e23-4d96-aa60-e1dbf1c60b6f}, !- Space Name
  Foundation,                             !- Outside Boundary Condition
  {0ef43b23-6d92-49af-83ba-d72e5e0c1840}, !- Outside Boundary Condition Object
  NoSun,                                  !- Sun Exposure
  NoWind,                                 !- Wind Exposure
  ,                                       !- View Factor to Ground
  ,                                       !- Number of Vertices
  -20, 15, 0,                             !- X,Y,Z Vertex 1 {m}
  -20, 15, -3.048,                        !- X,Y,Z Vertex 2 {m}
  -20, 0, -3.048,                         !- X,Y,Z Vertex 3 {m}
  -20, 0, 0;                              !- X,Y,Z Vertex 4 {m}

OS:Surface,
  {159b5709-5529-4fcd-b61a-3770eaab9137}, !- Handle
  Surface 4,                              !- Name
  Wall,                                   !- Surface Type
  {db6f29c9-bd4d-46b6-ad2e-99a92e31d4f9}, !- Construction Name
  {82cd5d60-3e23-4d96-aa60-e1dbf1c60b6f}, !- Space Name
  Foundation,                             !- Outside Boundary Condition
  {0ef43b23-6d92-49af-83ba-d72e5e0c1840}, !- Outside Boundary Condition Object
  NoSun,                                  !- Sun Exposure
  NoWind,                                 !- Wind Exposure
  ,                                       !- View Factor to Ground
  ,                                       !- Number of Vertices
  0, 15, 0,                               !- X,Y,Z Vertex 1 {m}
  0, 15, -3.048,                          !- X,Y,Z Vertex 2 {m}
  -20, 15, -3.048,                        !- X,Y,Z Vertex 3 {m}
  -20, 15, 0;                             !- X,Y,Z Vertex 4 {m}

OS:Surface,
  {207cbb93-42aa-4e7d-bd4e-33b5677709ad}, !- Handle
  Surface 5,                              !- Name
  Wall,                                   !- Surface Type
  {db6f29c9-bd4d-46b6-ad2e-99a92e31d4f9}, !- Construction Name
  {82cd5d60-3e23-4d96-aa60-e1dbf1c60b6f}, !- Space Name
  Foundation,                             !- Outside Boundary Condition
  {0ef43b23-6d92-49af-83ba-d72e5e0c1840}, !- Outside Boundary Condition Object
  NoSun,                                  !- Sun Exposure
  NoWind,                                 !- Wind Exposure
  ,                                       !- View Factor to Ground
  ,                                       !- Number of Vertices
  0, 0, 0,                                !- X,Y,Z Vertex 1 {m}
  0, 0, -3.048,                           !- X,Y,Z Vertex 2 {m}
  0, 15, -3.048,                          !- X,Y,Z Vertex 3 {m}
  0, 15, 0;                               !- X,Y,Z Vertex 4 {m}

OS:Surface,
  {a51b5146-e76b-42cc-8f2b-34821b4bfd4d}, !- Handle
  Surface 6,                              !- Name
  RoofCeiling,                            !- Surface Type
  ,                                       !- Construction Name
  {82cd5d60-3e23-4d96-aa60-e1dbf1c60b6f}, !- Space Name
  Surface,                                !- Outside Boundary Condition
  {e5c495c1-21d3-4c87-b2cd-640574ea9515}, !- Outside Boundary Condition Object
  NoSun,                                  !- Sun Exposure
  NoWind,                                 !- Wind Exposure
  ,                                       !- View Factor to Ground
  ,                                       !- Number of Vertices
  0, 0, 0,                                !- X,Y,Z Vertex 1 {m}
  0, 2, 0,                                !- X,Y,Z Vertex 2 {m}
  -20, 2, 0,                              !- X,Y,Z Vertex 3 {m}
  -20, 0, 0;                              !- X,Y,Z Vertex 4 {m}

OS:Rendering:Color,
  {739b8e04-a439-4363-ae47-ed1a386e2df0}, !- Handle
  Rendering Color 1,                      !- Name
  240,                                    !- Rendering Red Value
  128,                                    !- Rendering Green Value
  128;                                    !- Rendering Blue Value

OS:BuildingStory,
  {8531eea9-50b4-4f15-ab76-cfd412a0f174}, !- Handle
  Building Story 2,                       !- Name
  3.048,                                  !- Nominal Z Coordinate {m}
  3.048,                                  !- Nominal Floor to Floor Height {m}
  ,                                       !- Default Construction Set Name
  ,                                       !- Default Schedule Set Name
  {672d807e-dc28-4a1e-8eda-cc3a05e11a16}; !- Group Rendering Name

OS:Space,
  {d3bea2bd-b64f-4db4-b9bf-48033591b99a}, !- Handle
  FirstFloor_Core_Southwest,              !- Name
  {6fd8f967-fda4-47b4-92ab-44fcf7d88603}, !- Space Type Name
  ,                                       !- Default Construction Set Name
  ,                                       !- Default Schedule Set Name
  -0,                                     !- Direction of Relative North {deg}
  35.2988892300002,                       !- X Origin {m}
  2,                                      !- Y Origin {m}
  0,                                      !- Z Origin {m}
  {845fbfed-7d49-471f-baea-096482805ddd}, !- Building Story Name
  {57c505ab-3bdf-49a7-b94a-1cab0d7f3356}, !- Thermal Zone Name
  ,                                       !- Part of Total Floor Area
  ,                                       !- Design Specification Outdoor Air Object Name
  ,                                       !- Building Unit Name
  Autocalculate,                          !- Volume {m3}
  ,                                       !- Ceiling Height {m}
  ;                                       !- Floor Area {m2}

OS:Surface,
  {b4653e6d-ef60-453a-b693-d727643119a2}, !- Handle
  Surface 41,                             !- Name
  Floor,                                  !- Surface Type
  ,                                       !- Construction Name
  {d3bea2bd-b64f-4db4-b9bf-48033591b99a}, !- Space Name
  Surface,                                !- Outside Boundary Condition
  {b2c76ccc-987f-48c5-8380-c1fc69e14e07}, !- Outside Boundary Condition Object
  NoSun,                                  !- Sun Exposure
  NoWind,                                 !- Wind Exposure
  ,                                       !- View Factor to Ground
  ,                                       !- Number of Vertices
  -15.2988892300002, 13, 0,               !- X,Y,Z Vertex 1 {m}
  -15.2988892300002, -2.88764567812905e-15, 0, !- X,Y,Z Vertex 2 {m}
  -35.2988892300002, -2.88764567812905e-15, 0, !- X,Y,Z Vertex 3 {m}
  -35.2988892300002, 13, 0;               !- X,Y,Z Vertex 4 {m}

OS:Surface,
  {89fd0239-3cff-4287-bffa-db893111670a}, !- Handle
  Surface 42,                             !- Name
  Wall,                                   !- Surface Type
  ,                                       !- Construction Name
  {d3bea2bd-b64f-4db4-b9bf-48033591b99a}, !- Space Name
  Outdoors,                               !- Outside Boundary Condition
  ,                                       !- Outside Boundary Condition Object
  SunExposed,                             !- Sun Exposure
  WindExposed,                            !- Wind Exposure
  ,                                       !- View Factor to Ground
  ,                                       !- Number of Vertices
  -35.2988892300002, 13, 3.048,           !- X,Y,Z Vertex 1 {m}
  -35.2988892300002, 13, 0,               !- X,Y,Z Vertex 2 {m}
  -35.2988892300002, -2.88764567812905e-15, 0, !- X,Y,Z Vertex 3 {m}
  -35.2988892300002, -2.88764567812905e-15, 3.048; !- X,Y,Z Vertex 4 {m}

OS:Surface,
  {7972b934-28b5-4e45-bb61-fef60d060fb6}, !- Handle
  Surface 43,                             !- Name
  Wall,                                   !- Surface Type
  ,                                       !- Construction Name
  {d3bea2bd-b64f-4db4-b9bf-48033591b99a}, !- Space Name
  Surface,                                !- Outside Boundary Condition
  {12360b7f-0f0a-4d51-bd72-6954a770113d}, !- Outside Boundary Condition Object
  NoSun,                                  !- Sun Exposure
  NoWind,                                 !- Wind Exposure
  ,                                       !- View Factor to Ground
  ,                                       !- Number of Vertices
  -22.7988892300002, 13, 3.048,           !- X,Y,Z Vertex 1 {m}
  -22.7988892300002, 13, 0,               !- X,Y,Z Vertex 2 {m}
  -27.7988892300002, 13, 0,               !- X,Y,Z Vertex 3 {m}
  -27.7988892300002, 13, 3.048;           !- X,Y,Z Vertex 4 {m}

OS:Surface,
  {021352dc-934e-4adf-b3a3-eb10c5e2f22a}, !- Handle
  Surface 44,                             !- Name
  Wall,                                   !- Surface Type
  ,                                       !- Construction Name
  {d3bea2bd-b64f-4db4-b9bf-48033591b99a}, !- Space Name
  Outdoors,                               !- Outside Boundary Condition
  ,                                       !- Outside Boundary Condition Object
  SunExposed,                             !- Sun Exposure
  WindExposed,                            !- Wind Exposure
  ,                                       !- View Factor to Ground
  ,                                       !- Number of Vertices
  -15.2988892300002, 11, 3.048,           !- X,Y,Z Vertex 1 {m}
  -15.2988892300002, 11, 0,               !- X,Y,Z Vertex 2 {m}
  -15.2988892300002, 13, 0,               !- X,Y,Z Vertex 3 {m}
  -15.2988892300002, 13, 3.048;           !- X,Y,Z Vertex 4 {m}

OS:Surface,
  {00a63383-3f19-4a48-8a51-2aea81532eb0}, !- Handle
  Surface 45,                             !- Name
  Wall,                                   !- Surface Type
  ,                                       !- Construction Name
  {d3bea2bd-b64f-4db4-b9bf-48033591b99a}, !- Space Name
  Outdoors,                               !- Outside Boundary Condition
  ,                                       !- Outside Boundary Condition Object
  SunExposed,                             !- Sun Exposure
  WindExposed,                            !- Wind Exposure
  ,                                       !- View Factor to Ground
  ,                                       !- Number of Vertices
  -15.2988892300002, -2.88764567812905e-15, 3.048, !- X,Y,Z Vertex 1 {m}
  -15.2988892300002, -2.88764567812905e-15, 0, !- X,Y,Z Vertex 2 {m}
  -15.2988892300002, 11, 0,               !- X,Y,Z Vertex 3 {m}
  -15.2988892300002, 11, 3.048;           !- X,Y,Z Vertex 4 {m}

OS:Surface,
  {dbe5b6a0-c564-465f-8557-a8001cc69573}, !- Handle
  Surface 46,                             !- Name
  Wall,                                   !- Surface Type
  ,                                       !- Construction Name
  {d3bea2bd-b64f-4db4-b9bf-48033591b99a}, !- Space Name
  Surface,                                !- Outside Boundary Condition
  {401c9826-310e-45e2-bcd8-dbee012b43cb}, !- Outside Boundary Condition Object
  NoSun,                                  !- Sun Exposure
  NoWind,                                 !- Wind Exposure
  ,                                       !- View Factor to Ground
  ,                                       !- Number of Vertices
  -35.2988892300002, -2.88764567812905e-15, 3.048, !- X,Y,Z Vertex 1 {m}
  -35.2988892300002, -2.88764567812905e-15, 0, !- X,Y,Z Vertex 2 {m}
  -15.2988892300002, -2.88764567812905e-15, 0, !- X,Y,Z Vertex 3 {m}
  -15.2988892300002, -2.88764567812905e-15, 3.048; !- X,Y,Z Vertex 4 {m}

OS:Surface,
  {dc349441-63c1-4157-b228-9b0718950293}, !- Handle
  Surface 47,                             !- Name
  RoofCeiling,                            !- Surface Type
  ,                                       !- Construction Name
  {d3bea2bd-b64f-4db4-b9bf-48033591b99a}, !- Space Name
  Surface,                                !- Outside Boundary Condition
  {57acdce7-e355-4c50-a09c-7f9f6cc0c3fb}, !- Outside Boundary Condition Object
  NoSun,                                  !- Sun Exposure
  NoWind,                                 !- Wind Exposure
  ,                                       !- View Factor to Ground
  ,                                       !- Number of Vertices
  -15.2988892300002, -2.88764567812905e-15, 3.048, !- X,Y,Z Vertex 1 {m}
  -15.2988892300002, 13, 3.048,           !- X,Y,Z Vertex 2 {m}
  -35.2988892300002, 13, 3.048,           !- X,Y,Z Vertex 3 {m}
  -35.2988892300002, -2.88764567812905e-15, 3.048; !- X,Y,Z Vertex 4 {m}

OS:Rendering:Color,
  {672d807e-dc28-4a1e-8eda-cc3a05e11a16}, !- Handle
  Rendering Color 2,                      !- Name
  255,                                    !- Rendering Red Value
  240,                                    !- Rendering Green Value
  255;                                    !- Rendering Blue Value

OS:Rendering:Color,
  {cc26e8bd-1927-4fad-9421-ae7e0e8c1b55}, !- Handle
  Rendering Color 3,                      !- Name
  255,                                    !- Rendering Red Value
  224,                                    !- Rendering Green Value
  255;                                    !- Rendering Blue Value

OS:BuildingStory,
  {298c211e-46f9-4aab-81a1-b40ce00a25dd}, !- Handle
  Building Story 4,                       !- Name
  9.144,                                  !- Nominal Z Coordinate {m}
  3.048,                                  !- Nominal Floor to Floor Height {m}
  ,                                       !- Default Construction Set Name
  ,                                       !- Default Schedule Set Name
  {b68bcc6c-25a2-4a80-968c-e89fe498f44c}; !- Group Rendering Name

OS:Space,
  {603e1405-ac60-42f1-85e0-e3127a0ebaff}, !- Handle
  SecondFloorEast,                        !- Name
  {6fd8f967-fda4-47b4-92ab-44fcf7d88603}, !- Space Type Name
  ,                                       !- Default Construction Set Name
  ,                                       !- Default Schedule Set Name
  -0,                                     !- Direction of Relative North {deg}
  71.3455088561255,                       !- X Origin {m}
  15,                                     !- Y Origin {m}
  0,                                      !- Z Origin {m}
  {8531eea9-50b4-4f15-ab76-cfd412a0f174}, !- Building Story Name
  {230a980e-7e3c-4942-b30c-2dc8f36b764f}, !- Thermal Zone Name
  ,                                       !- Part of Total Floor Area
  ,                                       !- Design Specification Outdoor Air Object Name
  ,                                       !- Building Unit Name
  Autocalculate,                          !- Volume {m3}
  ,                                       !- Ceiling Height {m}
  ;                                       !- Floor Area {m2}

OS:Surface,
  {2c50b895-401c-44ab-b50e-eb1b1d1545e1}, !- Handle
  Surface 69,                             !- Name
  Floor,                                  !- Surface Type
  ,                                       !- Construction Name
  {603e1405-ac60-42f1-85e0-e3127a0ebaff}, !- Space Name
  Surface,                                !- Outside Boundary Condition
  {ec0eaf2b-0595-488a-83b9-a1382b67156b}, !- Outside Boundary Condition Object
  NoSun,                                  !- Sun Exposure
  NoWind,                                 !- Wind Exposure
  ,                                       !- View Factor to Ground
  ,                                       !- Number of Vertices
  -51.3455088561255, -13, 3.048,          !- X,Y,Z Vertex 1 {m}
  -51.3455088561255, -15, 3.048,          !- X,Y,Z Vertex 2 {m}
  -71.3455088561255, -15, 3.048,          !- X,Y,Z Vertex 3 {m}
  -71.3455088561255, -13, 3.048;          !- X,Y,Z Vertex 4 {m}

OS:Surface,
  {a7b40734-40ff-49da-81a8-aeb7756121e4}, !- Handle
  Surface 70,                             !- Name
  Wall,                                   !- Surface Type
  ,                                       !- Construction Name
  {603e1405-ac60-42f1-85e0-e3127a0ebaff}, !- Space Name
  Outdoors,                               !- Outside Boundary Condition
  ,                                       !- Outside Boundary Condition Object
  SunExposed,                             !- Sun Exposure
  WindExposed,                            !- Wind Exposure
  ,                                       !- View Factor to Ground
  ,                                       !- Number of Vertices
  -51.3455088561255, -15, 6.096,          !- X,Y,Z Vertex 1 {m}
  -51.3455088561255, -15, 3.048,          !- X,Y,Z Vertex 2 {m}
  -51.3455088561255, 5.77529135625809e-15, 3.048, !- X,Y,Z Vertex 3 {m}
  -51.3455088561255, -1.44382283906452e-14, 6.096; !- X,Y,Z Vertex 4 {m}

OS:Surface,
  {9f8d5f6d-daf5-4687-a9a7-01041a1f41dd}, !- Handle