
OS:Version,
  {caa610a3-3387-4604-ad0b-c4be29ff526a}, !- Handle
  3.6.1;                                  !- Version Identifier

OS:Schedule:Constant,
  {1b5a5acf-191c-4c1d-9a2f-ef4338ea4346}, !- Handle
  Always On Discrete,                     !- Name
  {a05c5ad9-1343-4784-af44-94e90599de6c}, !- Schedule Type Limits Name
  1;                                      !- Value

OS:ScheduleTypeLimits,
  {a05c5ad9-1343-4784-af44-94e90599de6c}, !- Handle
  Always On Discrete Limits,              !- Name
  0,                                      !- Lower Limit Value
  1,                                      !- Upper Limit Value
  Discrete,                               !- Numeric Type
  Availability;                           !- Unit Type

OS:ClimateZones,
  {8a3ac41c-57d4-48e4-a48e-1f232e262211}, !- Handle
  ASHRAE,                                 !- Climate Zone Institution Name 1
  ANSI/ASHRAE Standard 169,               !- Climate Zone Document Name 1
  2006,                                   !- Climate Zone Document Year 1
  ,                                       !- Climate Zone Value 1
  CEC,                                    !- Climate Zone Institution Name 2
  California Climate Zone Descriptions,   !- Climate Zone Document Name 2
  1995,                                   !- Climate Zone Document Year 2
  ;                                       !- Climate Zone Value 2

OS:LifeCycleCost:Parameters,
  {1d4d0f18-e6dd-45c8-896c-f4f2a89e6ae5}, !- Handle
  FEMP,                                   !- Analysis Type
  ,                                       !- Discounting Convention
  ,                                       !- Inflation Approach
  ,                                       !- Real Discount Rate
  ,                                       !- Nominal Discount Rate
  ,                                       !- Inflation
  ,                                       !- Base Date Month
  ,                                       !- Base Date Year
  ,                                       !- Service Date Month
  ,                                       !- Service Date Year
  ,                                       !- Length of Study Period in Years
  ,                                       !- Tax Rate
  ,                                       !- Depreciation Method
  Yes;                                    !- Use NIST Fuel Escalation Rates

OS:YearDescription,
  {c1349a5a-d7e1-4ed9-8e5b-24480649c25c}; !- Handle

OS:RadianceParameters,
  {8297fd56-36de-4b79-a182-b7636f4ae3e3}, !- Handle
  1,                                      !- Accumulated Rays per Record
  0,                                      !- Direct Threshold
  1,                                      !- Direct Certainty
  1,                                      !- Direct Jitter
  1,                                      !- Direct Pretest
  6,                                      !- Ambient Bounces VMX
  2,                                      !- Ambient Bounces DMX
  4050,                                   !- Ambient Divisions VMX
  512,                                    !- Ambient Divisions DMX
  256,                                    !- Ambient Supersamples
  0.001,                                  !- Limit Weight VMX
  0.001,                                  !- Limit Weight DMX
  500,                                    !- Klems Sampling Density
  146;                                    !- Sky Discretization Resolution

OS:SimulationControl,
  {7c57f4fc-548f-44e7-a438-1feca6a75629}; !- Handle

OS:Sizing:Parameters,
  {ee365675-827e-489e-9a24-0f596988dec4}, !- Handle
  1.25,                                   !- Heating Sizing Factor
  1.15;                                   !- Cooling Sizing Factor

OS:ProgramControl,
  {8a7b938e-cdcb-40af-82b1-79c267c36bae}; !- Handle

OS:Timestep,
  {31824a36-2f0f-4919-a534-cdb00e20d2e0}, !- Handle
  6;                                      !- Number of Timesteps per Hour

OS:OutputControl:ReportingTolerances,
  {275082a5-6cfd-4756-972e-8810ab253e29}; !- Handle

OS:ConvergenceLimits,
  {fcca1605-8471-4f2f-a485-a59582311771}; !- Handle

OS:ShadowCalculation,
  {d875de65-75c7-4d9d-883e-07bd79421b67}, !- Handle
  PolygonClipping,                        !- Shading Calculation Method
  ,                                       !- Shading Calculation Update Frequency Method
  7,                                      !- Shading Calculation Update Frequency
  15000,                                  !- Maximum Figures in Shadow Overlap Calculations
  ,                                       !- Polygon Clipping Algorithm
  512,                                    !- Pixel Counting Resolution
  ,                                       !- Sky Diffuse Modeling Algorithm
  No,                                     !- Output External Shading Calculation Results
  No,                                     !- Disable Self-Shading Within Shading Zone Groups
  No;                                     !- Disable Self-Shading From Shading Zone Groups to Other Zones

OS:SurfaceConvectionAlgorithm:Inside,
  {5add9a33-b760-4e82-a0f9-3ae0e369b9c4}, !- Handle
  TARP;                                   !- Algorithm

OS:SurfaceConvectionAlgorithm:Outside,
  {0257be16-14fc-418e-bc73-178201ccc4ec}, !- Handle
  DOE-2;                                  !- Algorithm

OS:HeatBalanceAlgorithm,
  {5a22c4c4-a6a6-4769-b0a8-f79498f98a6d}, !- Handle
  ConductionTransferFunction,             !- Algorithm
  200;                                    !- Surface Temperature Upper Limit {C}

OS:ZoneAirHeatBalanceAlgorithm,
  {24c912f8-6f7f-4792-8ea0-a8d47b3c41a1}, !- Handle
  AnalyticalSolution,                     !- Algorithm
  ,                                       !- Do Space Heat Balance for Sizing
  ;                                       !- Do Space Heat Balance for Simulation

OS:ZoneAirContaminantBalance,
  {07e7d420-4b9b-4760-8a70-01b36aa6074f}; !- Handle

OS:ZoneCapacitanceMultiplier:ResearchSpecial,
  {91056672-db13-4057-9cb7-7ac44d24bfc5}, !- Handle
  ,                                       !- Temperature Capacity Multiplier
  ,                                       !- Humidity Capacity Multiplier
  ;                                       !- Carbon Dioxide Capacity Multiplier

OS:RunPeriod,
  {17c33f47-c9b9-463a-84bc-12596f349148}, !- Handle
  Run Period 1,                           !- Name
  1,                                      !- Begin Month
  1,                                      !- Begin Day of Month
  12,                                     !- End Month
  31,                                     !- End Day of Month
  ,                                       !- Use Weather File Holidays and Special Days
  ,                                       !- Use Weather File Daylight Saving Period
  ,                                       !- Apply Weekend Holiday Rule
  ,                                       !- Use Weather File Rain Indicators
  ,                                       !- Use Weather File Snow Indicators
  ;                                       !- Number of Times Runperiod to be Repeated

OS:Building,
  {e0ce3521-4e53-4eca-8017-2f1c8dec2b50}, !- Handle
  Building 1,                             !- Name
  ,                                       !- Building Sector Type
  ,                                       !- North Axis {deg}
  3,                                      !- Nominal Floor to Floor Height {m}
  ,                                       !- Space Type Name
  ,                                       !- Default Construction Set Name
  ,                                       !- Default Schedule Set Name
  6,                                      !- Standards Number of Stories
  6,                                      !- Standards Number of Above Ground Stories
  NECB2011,                               !- Standards Template
  ,                                       !- Standards Building Type
  ,                                       !- Standards Number of Living Units
  ,                                       !- Relocatable
  3;                                      !- Nominal Floor to Ceiling Height {m}

OS:Facility,
  {b6e6be84-f909-42a5-9deb-ef70c0296721}; !- Handle

OS:Site,
  {f38b0e3c-04e1-4822-940e-9b46c436222c}, !- Handle
  Site 1,                                 !- Name
  ,                                       !- Latitude {deg}
  ,                                       !- Longitude {deg}
  ,                                       !- Time Zone {hr}
  ,                                       !- Elevation {m}
  ;                                       !- Terrain

OS:BuildingStory,
  {8e6af229-5256-43e2-97a1-55774670f29b}, !- Handle
  Building Story 1,                       !- Name
  0,                                      !- Nominal Z Coordinate {m}
  3.048,                                  !- Nominal Floor to Floor Height {m}
  ,                                       !- Default Construction Set Name
  ,                                       !- Default Schedule Set Name
  {0c5521fc-6a7d-40da-9a3d-0bb4252bad1e}, !- Group Rendering Name
  ;                                       !- Nominal Floor to Ceiling Height {m}

OS:Space,
  {1d9809fc-06de-4d98-83c4-7b03aeec39d8}, !- Handle
  Space 101,                              !- Name
  {12f6535a-ad06-4d10-a4a1-f2450709787d}, !- Space Type Name
  ,                                       !- Default Construction Set Name
  ,                                       !- Default Schedule Set Name
  ,                                       !- Direction of Relative North {deg}
  7.53757866745367,                       !- X Origin {m}
  2.69403027389002,                       !- Y Origin {m}
  0,                                      !- Z Origin {m}
  {8e6af229-5256-43e2-97a1-55774670f29b}, !- Building Story Name
  {8377087b-7271-4e5e-9a31-8475c6d621b6}, !- Thermal Zone Name
  ,                                       !- Part of Total Floor Area
  ,                                       !- Design Specification Outdoor Air Object Name
  ,                                       !- Building Unit Name
  ,                                       !- Volume {m3}
  ,                                       !- Ceiling Height {m}
  ;                                       !- Floor Area {m2}

OS:Surface,
  {727179e6-66dc-4a7c-b0d5-6917aec82fc0}, !- Handle
  Surface 1,                              !- Name
  Floor,                                  !- Surface Type
  ,                                       !- Construction Name
  {1d9809fc-06de-4d98-83c4-7b03aeec39d8}, !- Space Name
  Ground,                                 !- Outside Boundary Condition
  ,                                       !- Outside Boundary Condition Object
  NoSun,                                  !- Sun Exposure
  NoWind,                                 !- Wind Exposure
  ,                                       !- View Factor to Ground
  ,                                       !- Number of Vertices
  0, 8.25, 0,                             !- X,Y,Z Vertex 1 {m}
  0, 0, 0,                                !- X,Y,Z Vertex 2 {m}
  -4.38, 3.60955709766131e-16, 0,         !- X,Y,Z Vertex 3 {m}
  -4.38, 8.25, 0;                         !- X,Y,Z Vertex 4 {m}

OS:Surface,
  {cd360b28-6120-4a34-b504-cc65a81bc4cb}, !- Handle
  Surface 2,                              !- Name
  Wall,                                   !- Surface Type
  ,                                       !- Construction Name
  {1d9809fc-06de-4d98-83c4-7b03aeec39d8}, !- Space Name
  Outdoors,                               !- Outside Boundary Condition
  ,                                       !- Outside Boundary Condition Object
  SunExposed,                             !- Sun Exposure
  WindExposed,                            !- Wind Exposure
  ,                                       !- View Factor to Ground
  ,                                       !- Number of Vertices
  -4.38, 3.60955709766131e-16, 3.048,     !- X,Y,Z Vertex 1 {m}
  -4.38, 3.60955709766131e-16, 0,         !- X,Y,Z Vertex 2 {m}
  0, 0, 0,                                !- X,Y,Z Vertex 3 {m}
  0, 0, 3.048;                            !- X,Y,Z Vertex 4 {m}

OS:Surface,
  {413bae26-0bc0-4c97-b774-a972dce80191}, !- Handle
  Surface 3,                              !- Name
  Wall,                                   !- Surface Type
  ,                                       !- Construction Name
  {1d9809fc-06de-4d98-83c4-7b03aeec39d8}, !- Space Name
  Outdoors,                               !- Outside Boundary Condition
  ,                                       !- Outside Boundary Condition Object
  SunExposed,                             !- Sun Exposure
  WindExposed,                            !- Wind Exposure
  ,                                       !- View Factor to Ground
  ,                                       !- Number of Vertices
  -4.38, 8.25, 3.048,                     !- X,Y,Z Vertex 1 {m}
  -4.38, 8.25, 0,                         !- X,Y,Z Vertex 2 {m}
  -4.38, 3.60955709766131e-16, 0,         !- X,Y,Z Vertex 3 {m}
  -4.38, 3.60955709766131e-16, 3.048;     !- X,Y,Z Vertex 4 {m}

OS:Surface,
  {63e47b70-924c-447c-83fc-9fe5a7e3e7dd}, !- Handle
  Surface 4,                              !- Name
  Wall,                                   !- Surface Type
  ,                                       !- Construction Name
  {1d9809fc-06de-4d98-83c4-7b03aeec39d8}, !- Space Name
  Surface,                                !- Outside Boundary Condition
  {4bee4af5-6ec0-42b5-a1da-9818b229ae68}, !- Outside Boundary Condition Object
  NoSun,                                  !- Sun Exposure
  NoWind,                                 !- Wind Exposure
  ,                                       !- View Factor to Ground
  ,                                       !- Number of Vertices
  0, 8.25, 3.048,                         !- X,Y,Z Vertex 1 {m}
  0, 8.25, 0,                             !- X,Y,Z Vertex 2 {m}
  -4.38, 8.25, 0,                         !- X,Y,Z Vertex 3 {m}
  -4.38, 8.25, 3.048;                     !- X,Y,Z Vertex 4 {m}

OS:Surface,
  {de379050-6a53-439e-aa4d-1fbd5e7490a2}, !- Handle
  Surface 5,                              !- Name
  Wall,                                   !- Surface Type
  ,                                       !- Construction Name
  {1d9809fc-06de-4d98-83c4-7b03aeec39d8}, !- Space Name
  Surface,                                !- Outside Boundary Condition
  {f17ead38-bc27-4879-bf83-87ecc17bbeb8}, !- Outside Boundary Condition Object
  NoSun,                                  !- Sun Exposure
  NoWind,                                 !- Wind Exposure
  ,                                       !- View Factor to Ground
  ,                                       !- Number of Vertices
  0, 0, 3.048,                            !- X,Y,Z Vertex 1 {m}
  0, 0, 0,                                !- X,Y,Z Vertex 2 {m}
  0, 8.25, 0,                             !- X,Y,Z Vertex 3 {m}
  0, 8.25, 3.048;                         !- X,Y,Z Vertex 4 {m}

OS:Surface,
  {99f51bbc-81ae-43a6-9b27-c22f3b3e2be9}, !- Handle
  Surface 6,                              !- Name
  RoofCeiling,                            !- Surface Type
  ,                                       !- Construction Name
  {1d9809fc-06de-4d98-83c4-7b03aeec39d8}, !- Space Name
  Outdoors,                               !- Outside Boundary Condition
  ,                                       !- Outside Boundary Condition Object
  SunExposed,                             !- Sun Exposure
  WindExposed,                            !- Wind Exposure
  ,                                       !- View Factor to Ground
  ,                                       !- Number of Vertices
  0, 0, 3.048,                            !- X,Y,Z Vertex 1 {m}
  0, 8.25, 3.048,                         !- X,Y,Z Vertex 2 {m}
  -4.38, 8.25, 3.048,                     !- X,Y,Z Vertex 3 {m}
  -4.38, 3.60955709766131e-16, 3.048;     !- X,Y,Z Vertex 4 {m}

OS:Space,
  {75a5c384-7cdf-4a78-bdfa-c991d4e60059}, !- Handle
  Space 102,                              !- Name
  {6fc4ae4c-fd85-435c-a77b-859d7d4e940a}, !- Space Type Name
  ,                                       !- Default Construction Set Name
  ,                                       !- Default Schedule Set Name
  ,                                       !- Direction of Relative North {deg}
  9.20590109292991,                       !- X Origin {m}
  2.69403027389002,                       !- Y Origin {m}
  0,                                      !- Z Origin {m}
  {8e6af229-5256-43e2-97a1-55774670f29b}, !- Building Story Name
  {81f356a6-c5c8-4fb6-9841-9c9ffa1cfc91}; !- Thermal Zone Name

OS:Surface,
  {26ffe0b6-bbda-4a9e-9e42-a5b3da62409a}, !- Handle
  Surface 7,                              !- Name
  Floor,                                  !- Surface Type
  ,                                       !- Construction Name
  {75a5c384-7cdf-4a78-bdfa-c991d4e60059}, !- Space Name
  Ground,                                 !- Outside Boundary Condition
  ,                                       !- Outside Boundary Condition Object
  NoSun,                                  !- Sun Exposure
  NoWind,                                 !- Wind Exposure
  ,                                       !- View Factor to Ground
  ,                                       !- Number of Vertices
  10.4516775745238, 8.25, 0,              !- X,Y,Z Vertex 1 {m}
  10.4516775745238, 4.54, 0,              !- X,Y,Z Vertex 2 {m}
  5.77809896686275, 4.54, 0,              !- X,Y,Z Vertex 3 {m}
  5.77809896686275, 3.60955709766131e-16, 0, !- X,Y,Z Vertex 4 {m}
  3.18, 0, 0,                             !- X,Y,Z Vertex 5 {m}
  3.18, 4.54, 0,                          !- X,Y,Z Vertex 6 {m}
  0, 4.54, 0,                             !- X,Y,Z Vertex 7 {m}
  0, 0, 0,                                !- X,Y,Z Vertex 8 {m}
  -1.66832242547624, 0, 0,                !- X,Y,Z Vertex 9 {m}
  -1.66832242547624, 8.25, 0;             !- X,Y,Z Vertex 10 {m}

OS:Surface,
  {4986a71a-31a2-477e-89e4-f1926060d666}, !- Handle
  Surface 8,                              !- Name
  Wall,                                   !- Surface Type
  ,                                       !- Construction Name
  {75a5c384-7cdf-4a78-bdfa-c991d4e60059}, !- Space Name
  Outdoors,                               !- Outside Boundary Condition
  ,                                       !- Outside Boundary Condition Object
  SunExposed,                             !- Sun Exposure
  WindExposed,                            !- Wind Exposure
  ,                                       !- View Factor to Ground
  ,                                       !- Number of Vertices
  -1.66832242547624, 0, 3.048,            !- X,Y,Z Vertex 1 {m}
  -1.66832242547624, 0, 0,                !- X,Y,Z Vertex 2 {m}
  0, 0, 0,                                !- X,Y,Z Vertex 3 {m}
  0, 0, 3.048;                            !- X,Y,Z Vertex 4 {m}

OS:Surface,
  {f17ead38-bc27-4879-bf83-87ecc17bbeb8}, !- Handle
  Surface 9,                              !- Name
  Wall,                                   !- Surface Type
  ,                                       !- Construction Name
  {75a5c384-7cdf-4a78-bdfa-c991d4e60059}, !- Space Name
  Surface,                                !- Outside Boundary Condition
  {de379050-6a53-439e-aa4d-1fbd5e7490a2}, !- Outside Boundary Condition Object
  NoSun,                                  !- Sun Exposure
  NoWind,                                 !- Wind Exposure
  ,                                       !- View Factor to Ground
  ,                                       !- Number of Vertices
  -1.66832242547624, 8.25, 3.048,         !- X,Y,Z Vertex 1 {m}
  -1.66832242547624, 8.25, 0,             !- X,Y,Z Vertex 2 {m}
  -1.66832242547624, 0, 0,                !- X,Y,Z Vertex 3 {m}
  -1.66832242547624, 0, 3.048;            !- X,Y,Z Vertex 4 {m}

OS:Surface,
  {81279a1e-81e2-4647-ae69-7917034c2eb9}, !- Handle
  Surface 10,                             !- Name
  Wall,                                   !- Surface Type
  ,                                       !- Construction Name
  {75a5c384-7cdf-4a78-bdfa-c991d4e60059}, !- Space Name
  Surface,                                !- Outside Boundary Condition
  {d0dff734-9f44-46a6-b2bd-b5da7ee434f3}, !- Outside Boundary Condition Object
  NoSun,                                  !- Sun Exposure
  NoWind,                                 !- Wind Exposure
  ,                                       !- View Factor to Ground
  ,                                       !- Number of Vertices
  3.16167757452377, 8.25, 3.048,          !- X,Y,Z Vertex 1 {m}
  3.16167757452377, 8.25, 0,              !- X,Y,Z Vertex 2 {m}
  -1.66832242547624, 8.25, 0,             !- X,Y,Z Vertex 3 {m}
  -1.66832242547624, 8.25, 3.048;         !- X,Y,Z Vertex 4 {m}

OS:Surface,
  {d04357e6-0e07-4202-bd78-b564f1a17202}, !- Handle
  Surface 11,                             !- Name
  Wall,                                   !- Surface Type
  ,                                       !- Construction Name
  {75a5c384-7cdf-4a78-bdfa-c991d4e60059}, !- Space Name
  Surface,                                !- Outside Boundary Condition
  {e24b82fb-6d40-488b-9c32-d77c9594c326}, !- Outside Boundary Condition Object
  NoSun,                                  !- Sun Exposure
  NoWind,                                 !- Wind Exposure
  ,                                       !- View Factor to Ground
  ,                                       !- Number of Vertices
  10.4516775745238, 8.25, 3.048,          !- X,Y,Z Vertex 1 {m}
  10.4516775745238, 8.25, 0,              !- X,Y,Z Vertex 2 {m}
  3.16167757452377, 8.25, 0,              !- X,Y,Z Vertex 3 {m}
  3.16167757452377, 8.25, 3.048;          !- X,Y,Z Vertex 4 {m}

OS:Surface,
  {249445f6-b73d-4100-ab1f-14eea8d8457d}, !- Handle
  Surface 12,                             !- Name
  Wall,                                   !- Surface Type
  ,                                       !- Construction Name
  {75a5c384-7cdf-4a78-bdfa-c991d4e60059}, !- Space Name
  Outdoors,                               !- Outside Boundary Condition
  ,                                       !- Outside Boundary Condition Object
  SunExposed,                             !- Sun Exposure
  WindExposed,                            !- Wind Exposure
  ,                                       !- View Factor to Ground
  ,                                       !- Number of Vertices
  10.4516775745238, 4.54, 3.048,          !- X,Y,Z Vertex 1 {m}
  10.4516775745238, 4.54, 0,              !- X,Y,Z Vertex 2 {m}
  10.4516775745238, 8.25, 0,              !- X,Y,Z Vertex 3 {m}
  10.4516775745238, 8.25, 3.048;          !- X,Y,Z Vertex 4 {m}

OS:Surface,
  {b87d75df-9e50-43b8-be78-0c3a9f2d9748}, !- Handle
  Surface 13,                             !- Name
  Wall,                                   !- Surface Type
  ,                                       !- Construction Name
  {75a5c384-7cdf-4a78-bdfa-c991d4e60059}, !- Space Name
  Surface,                                !- Outside Boundary Condition
  {8a601487-dc1f-4408-a242-78b961f20042}, !- Outside Boundary Condition Object
  NoSun,                                  !- Sun Exposure
  NoWind,                                 !- Wind Exposure
  ,                                       !- View Factor to Ground
  ,                                       !- Number of Vertices
  5.77809896686275, 4.54, 3.048,          !- X,Y,Z Vertex 1 {m}
  5.77809896686275, 4.54, 0,              !- X,Y,Z Vertex 2 {m}
  10.4516775745238, 4.54, 0,              !- X,Y,Z Vertex 3 {m}
  10.4516775745238, 4.54, 3.048;          !- X,Y,Z Vertex 4 {m}

OS:Surface,
  {75adbf85-b2c2-43b9-80af-645131fadfa1}, !- Handle
  Surface 14,                             !- Name
  Wall,                                   !- Surface Type
  ,                                       !- Construction Name
  {75a5c384-7cdf-4a78-bdfa-c991d4e60059}, !- Space Name
  Surface,                                !- Outside Boundary Condition
  {2d229a7a-3b79-49da-aeb9-57a35908a67a}, !- Outside Boundary Condition Object
  NoSun,                                  !- Sun Exposure
  NoWind,                                 !- Wind Exposure
  ,                                       !- View Factor to Ground
  ,                                       !- Number of Vertices
  5.77809896686275, 3.60955709766131e-16, 3.048, !- X,Y,Z Vertex 1 {m}
  5.77809896686275, 3.60955709766131e-16, 0, !- X,Y,Z Vertex 2 {m}
  5.77809896686275, 4.54, 0,              !- X,Y,Z Vertex 3 {m}
  5.77809896686275, 4.54, 3.048;          !- X,Y,Z Vertex 4 {m}

OS:Surface,
  {85352c6f-5d96-43c4-8e66-447959128f6d}, !- Handle
  Surface 15,                             !- Name
  Wall,                                   !- Surface Type
  ,                                       !- Construction Name
  {75a5c384-7cdf-4a78-bdfa-c991d4e60059}, !- Space Name
  Outdoors,                               !- Outside Boundary Condition
  ,                                       !- Outside Boundary Condition Object
  SunExposed,                             !- Sun Exposure
  WindExposed,                            !- Wind Exposure
  ,                                       !- View Factor to Ground
  ,                                       !- Number of Vertices
  3.18, -8.01482679704548e-32, 3.048,     !- X,Y,Z Vertex 1 {m}
  3.18, 0, 0,                             !- X,Y,Z Vertex 2 {m}
  5.77809896686275, 3.60955709766131e-16, 0, !- X,Y,Z Vertex 3 {m}
  5.77809896686275, 3.60955709766131e-16, 3.048; !- X,Y,Z Vertex 4 {m}

OS:Surface,
  {4985a34a-8b76-4905-aecb-2976a1d4b059}, !- Handle
  Surface 16,                             !- Name
  Wall,                                   !- Surface Type
  ,                                       !- Construction Name
  {75a5c384-7cdf-4a78-bdfa-c991d4e60059}, !- Space Name
  Surface,                                !- Outside Boundary Condition
  {81deef2d-3853-4c20-91d5-07d468b1d554}, !- Outside Boundary Condition Object
  NoSun,                                  !- Sun Exposure
  NoWind,                                 !- Wind Exposure
  ,                                       !- View Factor to Ground
  ,                                       !- Number of Vertices
  3.18, 4.54, 3.048,                      !- X,Y,Z Vertex 1 {m}
  3.18, 4.54, 0,                          !- X,Y,Z Vertex 2 {m}
  3.18, 0, 0,                             !- X,Y,Z Vertex 3 {m}
  3.18, -8.01482679704548e-32, 3.048;     !- X,Y,Z Vertex 4 {m}

OS:Surface,
  {7256c127-69a9-4976-a68e-067015c3be80}, !- Handle
  Surface 17,                             !- Name
  Wall,                                   !- Surface Type
  ,                                       !- Construction Name
  {75a5c384-7cdf-4a78-bdfa-c991d4e60059}, !- Space Name
  Surface,                                !- Outside Boundary Condition
  {6230a2cd-64fc-4c8b-affd-208d6eb1ec26}, !- Outside Boundary Condition Object
  NoSun,                                  !- Sun Exposure
  NoWind,                                 !- Wind Exposure
  ,                                       !- View Factor to Ground
  ,                                       !- Number of Vertices
  0, 4.54, 3.048,                         !- X,Y,Z Vertex 1 {m}
  0, 4.54, 0,                             !- X,Y,Z Vertex 2 {m}
  3.18, 4.54, 0,                          !- X,Y,Z Vertex 3 {m}
  3.18, 4.54, 3.048;                      !- X,Y,Z Vertex 4 {m}

OS:Surface,
  {fb35c4b3-f85c-4d98-94f6-bc24cb6ad188}, !- Handle
  Surface 18,                             !- Name
  Wall,                                   !- Surface Type
  ,                                       !- Construction Name
  {75a5c384-7cdf-4a78-bdfa-c991d4e60059}, !- Space Name
  Surface,                                !- Outside Boundary Condition
  {06b8e7f8-ea26-4387-ae5a-aa434b55841c}, !- Outside Boundary Condition Object
  NoSun,                                  !- Sun Exposure
  NoWind,                                 !- Wind Exposure
  ,                                       !- View Factor to Ground
  ,                                       !- Number of Vertices
  0, 0, 3.048,                            !- X,Y,Z Vertex 1 {m}
  0, 0, 0,                                !- X,Y,Z Vertex 2 {m}
  0, 4.54, 0,                             !- X,Y,Z Vertex 3 {m}
  0, 4.54, 3.048;                         !- X,Y,Z Vertex 4 {m}

OS:Surface,
  {6bf50df0-8e26-4797-bada-8b3012ea2ef8}, !- Handle
  Surface 19,                             !- Name
  RoofCeiling,                            !- Surface Type
  ,                                       !- Construction Name
  {75a5c384-7cdf-4a78-bdfa-c991d4e60059}, !- Space Name
  Outdoors,                               !- Outside Boundary Condition
  ,                                       !- Outside Boundary Condition Object
  SunExposed,                             !- Sun Exposure
  WindExposed,                            !- Wind Exposure
  ,                                       !- View Factor to Ground
  ,                                       !- Number of Vertices
  5.77809896686275, 3.60955709766131e-16, 3.048, !- X,Y,Z Vertex 1 {m}
  5.77809896686275, 4.54, 3.048,          !- X,Y,Z Vertex 2 {m}
  10.4516775745238, 4.54, 3.048,          !- X,Y,Z Vertex 3 {m}
  10.4516775745238, 8.25, 3.048,          !- X,Y,Z Vertex 4 {m}
  -1.66832242547624, 8.25, 3.048,         !- X,Y,Z Vertex 5 {m}